# (C) British Crown Copyright 2020, Met Office.
# Please see LICENSE.md for license details.
#
# This 'model to MIP mappings' configuration file contains sections
# for each 'MIP requested variable name' that has a SImon
# 'model to MIP mapping'. Please see the 'User Guide' for more
# information.

[DEFAULT]
mip_table_id = SImon
reviewer = N/A
status = embargoed

[sfdsi]
expression = ((meltt + meltb + meltl - congel - frazil) * ICE_DENSITY
   + melts * SEAWATER_DENSITY) / (100 * SECONDS_IN_DAY * aice)
   * REF_SALINITY / 1000.
